examples/data/enwl/lv-network-models/network_7/Feeder_1/Loads.dss
New Load.LOAD1 Phases=1 Bus1=75.1 kV=0.23 kW=1 PF=0.95
New Load.LOAD2 Phases=1 Bus1=76.2 kV=0.23 kW=1 PF=0.95
New Load.LOAD3 Phases=1 Bus1=77.3 kV=0.23 kW=1 PF=0.95
New Load.LOAD4 Phases=1 Bus1=78.1 kV=0.23 kW=1 PF=0.95
New Load.LOAD5 Phases=1 Bus1=79.2 kV=0.23 kW=1 PF=0.95
New Load.LOAD6 Phases=1 Bus1=80.3 kV=0.23 kW=1 PF=0.95
New Load.LOAD7 Phases=1 Bus1=81.1 kV=0.23 kW=1 PF=0.95
New Load.LOAD8 Phases=1 Bus1=82.2 kV=0.23 kW=1 PF=0.95
New Load.LOAD9 Phases=1 Bus1=164.2 kV=0.23 kW=1 PF=0.95
New Load.LOAD10 Phases=1 Bus1=185.1 kV=0.23 kW=1 PF=0.95
New Load.LOAD11 Phases=1 Bus1=198.1 kV=0.23 kW=1 PF=0.95
New Load.LOAD12 Phases=1 Bus1=203.3 kV=0.23 kW=1 PF=0.95
New Load.LOAD13 Phases=1 Bus1=218.1 kV=0.23 kW=1 PF=0.95
New Load.LOAD14 Phases=1 Bus1=233.3 kV=0.23 kW=1 PF=0.95
New Load.LOAD15 Phases=1 Bus1=263.3 kV=0.23 kW=1 PF=0.95
New Load.LOAD16 Phases=1 Bus1=264.2 kV=0.23 kW=1 PF=0.95
New Load.LOAD17 Phases=1 Bus1=276.1 kV=0.23 kW=1 PF=0.95
New Load.LOAD18 Phases=1 Bus1=290.3 kV=0.23 kW=1 PF=0.95
New Load.LOAD19 Phases=1 Bus1=303.3 kV=0.23 kW=1 PF=0.95
New Load.LOAD20 Phases=1 Bus1=315.3 kV=0.23 kW=1 PF=0.95
New Load.LOAD21 Phases=1 Bus1=334.3 kV=0.23 kW=1 PF=0.95
New Load.LOAD22 Phases=1 Bus1=336.1 kV=0.23 kW=1 PF=0.95
New Load.LOAD23 Phases=1 Bus1=342.1 kV=0.23 kW=1 PF=0.95
New Load.LOAD24 Phases=1 Bus1=349.1 kV=0.23 kW=1 PF=0.95
New Load.LOAD25 Phases=1 Bus1=359.1 kV=0.23 kW=1 PF=0.95
New Load.LOAD26 Phases=1 Bus1=361.1 kV=0.23 kW=1 PF=0.95
New Load.LOAD27 Phases=1 Bus1=389.1 kV=0.23 kW=1 PF=0.95
New Load.LOAD28 Phases=1 Bus1=392.2 kV=0.23 kW=1 PF=0.95
New Load.LOAD29 Phases=1 Bus1=406.3 kV=0.23 kW=1 PF=0.95
New Load.LOAD30 Phases=1 Bus1=411.1 kV=0.23 kW=1 PF=0.95
New Load.LOAD31 Phases=1 Bus1=412.1 kV=0.23 kW=1 PF=0.95
New Load.LOAD32 Phases=1 Bus1=415.1 kV=0.23 kW=1 PF=0.95
New Load.LOAD33 Phases=1 Bus1=416.1 kV=0.23 kW=1 PF=0.95
New Load.LOAD34 Phases=1 Bus1=417.1 kV=0.23 kW=1 PF=0.95
New Load.LOAD35 Phases=1 Bus1=438.1 kV=0.23 kW=1 PF=0.95
New Load.LOAD36 Phases=1 Bus1=447.1 kV=0.23 kW=1 PF=0.95
New Load.LOAD37 Phases=1 Bus1=457.1 kV=0.23 kW=1 PF=0.95
New Load.LOAD38 Phases=1 Bus1=477.1 kV=0.23 kW=1 PF=0.95
New Load.LOAD39 Phases=1 Bus1=491.1 kV=0.23 kW=1 PF=0.95
New Load.LOAD40 Phases=1 Bus1=492.1 kV=0.23 kW=1 PF=0.95
New Load.LOAD41 Phases=1 Bus1=503.3 kV=0.23 kW=1 PF=0.95
New Load.LOAD42 Phases=1 Bus1=512.1 kV=0.23 kW=1 PF=0.95
New Load.LOAD43 Phases=1 Bus1=513.1 kV=0.23 kW=1 PF=0.95
New Load.LOAD44 Phases=1 Bus1=555.1 kV=0.23 kW=1 PF=0.95
New Load.LOAD45 Phases=1 Bus1=558.2 kV=0.23 kW=1 PF=0.95
New Load.LOAD46 Phases=1 Bus1=565.3 kV=0.23 kW=1 PF=0.95
New Load.LOAD47 Phases=1 Bus1=580.3 kV=0.23 kW=1 PF=0.95
New Load.LOAD48 Phases=1 Bus1=585.3 kV=0.23 kW=1 PF=0.95
New Load.LOAD49 Phases=1 Bus1=592.2 kV=0.23 kW=1 PF=0.95
New Load.LOAD50 Phases=1 Bus1=617.3 kV=0.23 kW=1 PF=0.95
New Load.LOAD51 Phases=1 Bus1=710.3 kV=0.23 kW=1 PF=0.95
New Load.LOAD52 Phases=1 Bus1=724.2 kV=0.23 kW=1 PF=0.95
New Load.LOAD53 Phases=1 Bus1=725.1 kV=0.23 kW=1 PF=0.95
New Load.LOAD54 Phases=1 Bus1=737.3 kV=0.23 kW=1 PF=0.95
New Load.LOAD55 Phases=1 Bus1=759.1 kV=0.23 kW=1 PF=0.95
New Load.LOAD56 Phases=1 Bus1=791.2 kV=0.23 kW=1 PF=0.95
New Load.LOAD57 Phases=1 Bus1=842.3 kV=0.23 kW=1 PF=0.95
New Load.LOAD58 Phases=1 Bus1=849.2 kV=0.23 kW=1 PF=0.95
New Load.LOAD59 Phases=1 Bus1=863.3 kV=0.23 kW=1 PF=0.95
New Load.LOAD60 Phases=1 Bus1=869.1 kV=0.23 kW=1 PF=0.95
New Load.LOAD61 Phases=1 Bus1=872.3 kV=0.23 kW=1 PF=0.95
New Load.LOAD62 Phases=1 Bus1=877.2 kV=0.23 kW=1 PF=0.95
New Load.LOAD63 Phases=1 Bus1=885.3 kV=0.23 kW=1 PF=0.95
New Load.LOAD64 Phases=1 Bus1=891.3 kV=0.23 kW=1 PF=0.95
New Load.LOAD65 Phases=1 Bus1=919.2 kV=0.23 kW=1 PF=0.95
New Load.LOAD66 Phases=1 Bus1=934.3 kV=0.23 kW=1 PF=0.95
New Load.LOAD67 Phases=1 Bus1=935.3 kV=0.23 kW=1 PF=0.95
New Load.LOAD68 Phases=1 Bus1=943.3 kV=0.23 kW=1 PF=0.95
New Load.LOAD69 Phases=1 Bus1=954.3 kV=0.23 kW=1 PF=0.95
New Load.LOAD70 Phases=1 Bus1=961.3 kV=0.23 kW=1 PF=0.95
New Load.LOAD71 Phases=1 Bus1=973.3 kV=0.23 kW=1 PF=0.95